Circuit: * C:\Users\Wac\Desktop\1_2014\Memoria\Draft1.asc

Warning: Multiple definitions of model "2n2222" Type: BJT
Warning: Multiple definitions of model "1n4148" Type: Diode
Direct Newton iteration for .op point succeeded.

Date: Tue Jul 08 20:36:17 2014
Total elapsed time: 0.327 seconds.

tnom = 27
temp = 27
method = modified trap
totiter = 2207
traniter = 2195
tranpoints = 1042
accept = 1042
rejected = 0
matrix size = 9
fillins = 0
solver = Normal
Matrix Compiler1: 492 bytes object code size  0.8/0.7/[0.4]
Matrix Compiler2: 695 bytes object code size  0.6/0.9/[0.5]


