Circuit: * C:\Users\lenovo\Desktop\temp\Memoria\codigos matlab y spice\injecciondecarga_mas_pc.asc

V5: Removing PWL point (3e-008,0.3)
V2: Removing PWL point (1.99e-008,0)
WARNING: Node N004 is floating.
WARNING: Node NC_01 is floating.

WARNING: Less than two connections to node VDD.  This node is used by V3.
WARNING: Less than two connections to node NC_01.  This node is used by C5.
Direct Newton iteration for .op point succeeded.
Ignoring empty pin current: Ix(u2:1)
Ignoring empty pin current: Ix(u2:2)
Ignoring empty pin current: Ix(u2:1)
Ignoring empty pin current: Ix(u2:2)

Date: Thu Jul 21 22:40:33 2016
Total elapsed time: 1.549 seconds.

tnom = 27
temp = 27
method = modified trap
totiter = 60095
traniter = 60092
tranpoints = 30047
accept = 30043
rejected = 4
matrix size = 12
fillins = 2
solver = Normal
Matrix Compiler1: 446 bytes object code size  0.8/0.6/[0.3]
Matrix Compiler2: 700 bytes object code size  0.4/0.6/[0.3]


