Circuit: * C:\Users\lenovo\Desktop\temp\Memoria\codigos matlab y spice\injecciondecarga.asc

V2: Removing PWL point (7.99e-008,0)
WARNING: Less than two connections to node VDD.  This node is used by V3.
Direct Newton iteration for .op point succeeded.
Ignoring empty pin current: Ix(u2:1)
Ignoring empty pin current: Ix(u2:2)
Ignoring empty pin current: Ix(u2:1)
Ignoring empty pin current: Ix(u2:2)

Date: Thu Jul 28 15:56:18 2016
Total elapsed time: 0.688 seconds.

tnom = 27
temp = 27
method = modified trap
totiter = 60069
traniter = 60066
tranpoints = 30034
accept = 30032
rejected = 2
matrix size = 8
fillins = 1
solver = Normal
Matrix Compiler1: 228 bytes object code size  0.5/0.3/[0.2]
Matrix Compiler2: 426 bytes object code size  0.4/0.4/[0.2]


